@<TRIPOS>MOLECULE
DEHU.pdb
20 19 1 0 0
SMALL
NO_CHARGES


@<TRIPOS>ATOM
      1 O          -3.9570    0.3500    0.4950 O.3       1        0.0000
      2 C          -2.7540    0.9730    0.4630 C.2       1        0.0000
      3 C          -1.5910    0.3030    0.6680 C.2       1        0.0000
      4 C          -0.2730    1.0680    0.6010 C.3       1        0.0000
      5 C           0.9850    0.1930    0.4810 C.3       1        0.0000
      6 C           1.0100   -0.7590   -0.7140 C.3       1        0.0000
      7 C           0.5620   -2.1890   -0.4420 C.2       1        0.0000
      8 O           0.0180   -2.7850   -1.3440 O.2       1        0.0000
      9 O           0.2140   -0.2550   -1.7750 O.3       1        0.0000
     10 O           2.0930    1.0630    0.3910 O.3       1        0.0000
     11 O          -1.5720   -0.8880    0.9040 O.2       1        0.0000
     12 O          -2.7830    2.1680    0.2470 O.2       1        0.0000
     13 H           0.7750   -2.6530    0.5470 H         1        0.0000
     14 H          -4.6540    1.0040    0.3210 H         1        0.0000
     15 H          -0.2890    1.7760   -0.2600 H         1        0.0000
     16 H          -0.2000    1.6800    1.5320 H         1        0.0000
     17 H           1.1400   -0.3800    1.4250 H         1        0.0000
     18 H           2.0500   -0.8630   -1.1040 H         1        0.0000
     19 H          -0.0270   -0.9930   -2.3460 H         1        0.0000
     20 H           2.9080    0.5900    0.5730 H         1        0.0000
@<TRIPOS>BOND
     1    1    2 1
     2    1   14 1
     3    2    3 2
     4    2   12 2
     5    3    4 1
     6    3   11 2
     7    4    5 1
     8    4   15 1
     9    4   16 1
    10    5    6 1
    11    5   10 1
    12    5   17 1
    13    6    7 1
    14    6    9 1
    15    6   18 1
    16    7    8 2
    17    7   13 1
    18    9   19 1
    19   10   20 1
@<TRIPOS>SUBSTRUCTURE
     1         1 RESIDUE           4 A             0 ROOT
